#!/bin/sh
# Initial script for Linux Live Kit
# Author: Tomas M <http://www.linux-live.org/>

# Modify and export/declare new PATH
export PATH=.:/:/usr/sbin:/usr/bin:/sbin:/bin

# Source Live Kit library script
. /lib/.config
. /lib/livekitlib

# Declare start of 'init' state
clear
echo_sign "INIT START"

# Run switch_root: initramfs -> tmpfs
transfer_initramfs

# Directory variables pointing to /memory
MEMORY=/memory
CHANGES=$MEMORY/changes
UNION=$MEMORY/union
DATAMNT=$MEMORY/data
BUNDLES=$MEMORY/bundles
WORK=$MEMORY/work
SYSTEM=$MEMORY/system

# Initliaise /proc, /sys and such
init_proc_sysfs

# Initialise debugging if requested
debug_start
dbg_shell_start

# 1st debug shell interval
debug_shell

# Initialise important kernel modules
init_devs
if [ "$(cmdline_value overlayfs)" != "" ]; then
	init_overlay
else
	init_aufs
fi
init_zram

# Then, modprobe everything
modprobe_everything

# Find data dir with filesystem bundles
# NEW: 
# Only 15 seconds before timeout, to minimize the
# pain of waiting a "whole" minute.
#
DATA="$(find_data 15 "$DATAMNT")"

# 2nd debug shell interval
debug_shell

# Setup persistent changes
persistent_changes "$DATA" "$CHANGES"

# 3rd debug shell interval
debug_shell

# Copy data to RAM if requested by user
DATA="$(copy_to_ram "$DATA" "$CHANGES")"
 
# Setup an empty union
if [ "$AUFS_ENABLED" ]; then
init_union_aufs "$CHANGES" "$UNION"
fi

if [ "$OVERLAY_ENABLED" ]; then
init_overlay
init_union_overlayfs "$CHANGES" "$UNION"
fi

# 4th debug shell interval
debug_shell

# Append bundles to union
#union_append_bundles "$DATA" "$BUNDLES" "$UNION"
mount_append_bundles "$DATA" "$BUNDLES"

MODPATH="$(cmdline_value modpath)"
if [ "$MODPATH" != "" ]; then
mount_append_bundles_modpath "$DATAMNT" "$BUNDLES" "$MODPATH"
fi

for i in $(find $BUNDLES -name "*.${BEXT}" -type d -maxdepth 1 | sort); do
	if [ "$AUFS_ENABLED" ]; then
		add_to_aufs_union_bundles $i $UNION
	fi
	#modulesbranches="$i=ro:$modulesbranches"
	modulesbranches="$i:$modulesbranches"
done
modulesbranches=$(echo $modulesbranches | sed "s|:$||g")
#overlaymodulesbranches=$(echo $modulesbranches | sed "s|=ro||g")


if [ "$OVERLAY_ENABLED" ]; then
echo "$overlaymodulesbranches" > /modulesbranches.txt
#mount -t overlay -o ro,lowerdir="$overlaymodulesbranches" overlay "$UNION"
	if [ "$NOCHANGE" == "" ]; then
		WORK=$DATA/work
		CHANGES=$DATA/changes
	fi
	mkdir -p $WORK
	mount -t overlay -o workdir=$WORK,upperdir=$CHANGES,lowerdir=$modulesbranches overlay $UNION
fi

if [ ! -z "$hostname" ]; then
# Configure hostname and network:
echo "${hostname}.example.net" > ${UNION}/etc/HOSTNAME
if [ -f ${UNION}/etc/NetworkManager/NetworkManager.conf ]; then
  sed -i ${UNION}/etc/NetworkManager/NetworkManager.conf -e "s/^hostname=.*/hostname=${hostname}/"
fi
echo "127.0.0.1 localhost" > ${UNION}/etc/hosts
echo "127.0.0.1 ${hostname}.example.net ${hostname}" >> ${UNION}/etc/hosts
fi

#setup user and password
if [ ! -z "$user" ]; then
	if [ ! -d $UNION/home/$user ]; then
		[ -d $UNION/home ] || mkdir -p $UNION/home
		echo "Setting up $user"
		#chroot $UNION /usr/sbin/useradd -m -g users -s /bin/bash $user
		#chroot $UNION /usr/sbin/usermod -G wheel,audio,cdrom,floppy,plugdev,video,power,netdev,lp,scanner,kmem $user
		chroot $UNION useradd -m -g users -s /bin/bash $user
		chroot $UNION usermod -G wheel,audio,cdrom,floppy,plugdev,video,power,netdev,lp,scanner,kmem $user
		echo "Setting up $user password"
		echo "$user:$user" > $UNION/tmp/chpasswd.tmp
		#chroot $UNION /usr/sbin/chpasswd < $UNION/tmp/chpasswd.tmp
		chroot $UNION chpasswd < $UNION/tmp/chpasswd.tmp

		rm -f $UNION/tmp/chpasswd.tmp
		# Configure suauth:
		echo "Configure suauth"
		echo "root:${user}:OWNPASS" > ${UNION}/etc/suauth
		echo "root:ALL EXCEPT GROUP wheel:DENY" >> ${UNION}/etc/suauth
		chmod 600 ${UNION}/etc/suauth

		# Configure sudoers:
		echo "Configure sudoers"
		chmod 640 ${UNION}/etc/sudoers
		sed -i ${UNION}/etc/sudoers -e 's/# *\(%wheel\sALL=(ALL)\sALL\)/\1/'
		chmod 440 ${UNION}/etc/sudoers

	else
		echo "/home/$user folder exists."
	fi
fi

#timezone
if [ ! -z "$timezone" ]; then
	if [ -f $UNION/usr/share/zoneinfo/$timezone ]; then
		echo "Timezone $timezone"
		ln -sf $UNION/usr/share/zoneinfo/$timezone $UNION/etc/localtime
	fi
fi

if [ ! -z "$runlevel" ]; then
	echo "init $runlevel"
	sed -i "s|^id:.*|id:${runlevel}:initdefault:|g" $UNION/etc/inittab
fi

if [ ! -z "$desktop" ]; then
	if [ -f $UNION/etc/X11/xinit/xinitrc.$desktop ]; then
		ln -sf xinitrc.$desktop  $UNION/etc/X11/xinit/xinitrc
	fi
fi

if [ ! -z "$fastboot" ]; then
	# needed so filesystem check will not happen on overlayfs
	echo "fastboot mode"
	touch $UNION/etc/fastboot
fi

if [ ! -z "$xconfig" ]; then
	echo "xorg configure"
	$UNION/usr/bin/Xorg -configure
	if [ -f /root/xorg.conf.new ]; then
		cp /root/xorg.conf.new $UNION/etc/X11/xorg.conf
	fi
	if [ -f $UNION/root/xorg.conf.new ]; then
		cp $UNION/root/xorg.conf.new $UNION/etc/X11/xorg.conf
	fi
fi

if [ ! -z "$nga" ]; then

	[ -d $UNION/etc/X11/xorg.conf.d ] || mkdir -p $UNION/etc/X11/xorg.conf.d
    cat <<EOT > $UNION/etc/X11/xorg.conf.d/20-noglamor.conf
Section "Device"
  Identifier "modesetting"
  Driver "modesetting"
  Option "AccelMethod" "none"
EndSection
EOT
fi

if [ ! -z "$lang" ]; then
	echo "export LANG=${lang}" > $UNION/etc/profile.d/lang.sh
	echo "export LC_COLLATE=${lang}" >> $UNION/etc/profile.d/lang.sh
fi

# 5th debug shell interval
debug_shell

# Copy contents of 'rootcopy/'
copy_rootcopy_content "$DATA" "$UNION"

# Generate a basic 'fstab' with the core filesystems
if [ "$AUFS_ENABLED" ]; then
	fstab_create_aufs "$UNION"
fi
if [ "$OVERLAY_ENABLED" ]; then
	fstab_create_overlay "$UNION"
fi
fstab_create "$UNION"

# 6th and final debug shell interval
debug_shell

# Declare the end of first 'init' state
clear
echo_sign "INIT END"

# Change root to main OS and let the 'init' in the
# main OS do the rest...
change_root "$UNION"

# < ======== NOTHING SHOULD GO OVER THIS LINE! ======== >
fatal "Unknown error!"
